365
Cu
Cu    0.000000    0.000000    0.000000
Cu    0.000000    0.000000   14.327640
Cu    0.000000   14.327640    0.000000
Cu    0.000000   14.327640   14.327640
Cu   14.327640    0.000000    0.000000
Cu   14.327640    0.000000   14.327640
Cu   14.327640   14.327640    0.000000
Cu   14.327640   14.327640   14.327640
Cu    0.000000    1.790955    1.790955
Cu   14.327640    1.790955    1.790955
Cu    1.790955    0.000000    1.790955
Cu    1.790955   14.327640    1.790955
Cu    1.790955    1.790955    0.000000
Cu    1.790955    1.790955   14.327640
Cu    0.000000    0.000000    3.581910
Cu    0.000000   14.327640    3.581910
Cu   14.327640    0.000000    3.581910
Cu   14.327640   14.327640    3.581910
Cu    0.000000    0.000000   10.745730
Cu    0.000000   14.327640   10.745730
Cu   14.327640    0.000000   10.745730
Cu   14.327640   14.327640   10.745730
Cu    3.581910    0.000000    0.000000
Cu    3.581910    0.000000   14.327640
Cu    3.581910   14.327640    0.000000
Cu    3.581910   14.327640   14.327640
Cu   10.745730    0.000000    0.000000
Cu   10.745730    0.000000   14.327640
Cu   10.745730   14.327640    0.000000
Cu   10.745730   14.327640   14.327640
Cu    0.000000    3.581910    0.000000
Cu    0.000000    3.581910   14.327640
Cu   14.327640    3.581910    0.000000
Cu   14.327640    3.581910   14.327640
Cu    0.000000   10.745730    0.000000
Cu    0.000000   10.745730   14.327640
Cu   14.327640   10.745730    0.000000
Cu   14.327640   10.745730   14.327640
Cu    0.000000    1.790955    5.372865
Cu   14.327640    1.790955    5.372865
Cu    0.000000    1.790955   12.536685
Cu   14.327640    1.790955   12.536685
Cu    3.581910    1.790955    1.790955
Cu   10.745730    1.790955    1.790955
Cu    0.000000    5.372865    1.790955
Cu   14.327640    5.372865    1.790955
Cu    0.000000   12.536685    1.790955
Cu   14.327640   12.536685    1.790955
Cu    1.790955    0.000000    5.372865
Cu    1.790955   14.327640    5.372865
Cu    1.790955    0.000000   12.536685
Cu    1.790955   14.327640   12.536685
Cu    5.372865    0.000000    1.790955
Cu    5.372865   14.327640    1.790955
Cu   12.536685    0.000000    1.790955
Cu   12.536685   14.327640    1.790955
Cu    1.790955    3.581910    1.790955
Cu    1.790955   10.745730    1.790955
Cu    1.790955    1.790955    3.581910
Cu    1.790955    1.790955   10.745730
Cu    5.372865    1.790955    0.000000
Cu    5.372865    1.790955   14.327640
Cu   12.536685    1.790955    0.000000
Cu   12.536685    1.790955   14.327640
Cu    1.790955    5.372865    0.000000
Cu    1.790955    5.372865   14.327640
Cu    1.790955   12.536685    0.000000
Cu    1.790955   12.536685   14.327640
Cu    0.000000    0.000000    7.163820
Cu    0.000000   14.327640    7.163820
Cu   14.327640    0.000000    7.163820
Cu   14.327640   14.327640    7.163820
Cu    7.163820    0.000000    0.000000
Cu    7.163820    0.000000   14.327640
Cu    7.163820   14.327640    0.000000
Cu    7.163820   14.327640   14.327640
Cu    0.000000    7.163820    0.000000
Cu    0.000000    7.163820   14.327640
Cu   14.327640    7.163820    0.000000
Cu   14.327640    7.163820   14.327640
Cu    0.000000    1.790955    8.954775
Cu   14.327640    1.790955    8.954775
Cu    7.163820    1.790955    1.790955
Cu    0.000000    8.954775    1.790955
Cu   14.327640    8.954775    1.790955
Cu    1.790955    0.000000    8.954775
Cu    1.790955   14.327640    8.954775
Cu    8.954775    0.000000    1.790955
Cu    8.954775   14.327640    1.790955
Cu    1.790955    7.163820    1.790955
Cu    1.790955    1.790955    7.163820
Cu    8.954775    1.790955    0.000000
Cu    8.954775    1.790955   14.327640
Cu    1.790955    8.954775    0.000000
Cu    1.790955    8.954775   14.327640
Cu    0.000000    3.581910    3.581910
Cu   14.327640    3.581910    3.581910
Cu    0.000000   10.745730   10.745730
Cu   14.327640   10.745730   10.745730
Cu    0.000000   10.745730    3.581910
Cu   14.327640   10.745730    3.581910
Cu    0.000000    3.581910   10.745730
Cu   14.327640    3.581910   10.745730
Cu    3.581910    0.000000    3.581910
Cu    3.581910   14.327640    3.581910
Cu   10.745730    0.000000   10.745730
Cu   10.745730   14.327640   10.745730
Cu    3.581910    0.000000   10.745730
Cu    3.581910   14.327640   10.745730
Cu   10.745730    0.000000    3.581910
Cu   10.745730   14.327640    3.581910
Cu    3.581910    3.581910    0.000000
Cu    3.581910    3.581910   14.327640
Cu   10.745730   10.745730    0.000000
Cu   10.745730   10.745730   14.327640
Cu   10.745730    3.581910    0.000000
Cu   10.745730    3.581910   14.327640
Cu    3.581910   10.745730    0.000000
Cu    3.581910   10.745730   14.327640
Cu    0.000000    5.372865    5.372865
Cu   14.327640    5.372865    5.372865
Cu    0.000000   12.536685   12.536685
Cu   14.327640   12.536685   12.536685
Cu    0.000000   12.536685    5.372865
Cu   14.327640   12.536685    5.372865
Cu    0.000000    5.372865   12.536685
Cu   14.327640    5.372865   12.536685
Cu    3.581910    1.790955    5.372865
Cu   10.745730    1.790955   12.536685
Cu    3.581910    1.790955   12.536685
Cu   10.745730    1.790955    5.372865
Cu    3.581910    5.372865    1.790955
Cu   10.745730   12.536685    1.790955
Cu   10.745730    5.372865    1.790955
Cu    3.581910   12.536685    1.790955
Cu    1.790955    3.581910    5.372865
Cu    1.790955   10.745730   12.536685
Cu    1.790955   10.745730    5.372865
Cu    1.790955    3.581910   12.536685
Cu    5.372865    0.000000    5.372865
Cu    5.372865   14.327640    5.372865
Cu   12.536685    0.000000   12.536685
Cu   12.536685   14.327640   12.536685
Cu    5.372865    0.000000   12.536685
Cu    5.372865   14.327640   12.536685
Cu   12.536685    0.000000    5.372865
Cu   12.536685   14.327640    5.372865
Cu    5.372865    3.581910    1.790955
Cu   12.536685   10.745730    1.790955
Cu   12.536685    3.581910    1.790955
Cu    5.372865   10.745730    1.790955
Cu    1.790955    5.372865    3.581910
Cu    1.790955   12.536685   10.745730
Cu    1.790955   12.536685    3.581910
Cu    1.790955    5.372865   10.745730
Cu    5.372865    1.790955    3.581910
Cu   12.536685    1.790955   10.745730
Cu    5.372865    1.790955   10.745730
Cu   12.536685    1.790955    3.581910
Cu    5.372865    5.372865    0.000000
Cu    5.372865    5.372865   14.327640
Cu   12.536685   12.536685    0.000000
Cu   12.536685   12.536685   14.327640
Cu   12.536685    5.372865    0.000000
Cu   12.536685    5.372865   14.327640
Cu    5.372865   12.536685    0.000000
Cu    5.372865   12.536685   14.327640
Cu    0.000000    3.581910    7.163820
Cu   14.327640    3.581910    7.163820
Cu    0.000000   10.745730    7.163820
Cu   14.327640   10.745730    7.163820
Cu    7.163820    0.000000    3.581910
Cu    7.163820   14.327640    3.581910
Cu    7.163820    0.000000   10.745730
Cu    7.163820   14.327640   10.745730
Cu    3.581910    7.163820    0.000000
Cu    3.581910    7.163820   14.327640
Cu   10.745730    7.163820    0.000000
Cu   10.745730    7.163820   14.327640
Cu    3.581910    0.000000    7.163820
Cu    3.581910   14.327640    7.163820
Cu   10.745730    0.000000    7.163820
Cu   10.745730   14.327640    7.163820
Cu    0.000000    7.163820   10.745730
Cu   14.327640    7.163820   10.745730
Cu    0.000000    7.163820    3.581910
Cu   14.327640    7.163820    3.581910
Cu    7.163820    3.581910    0.000000
Cu    7.163820    3.581910   14.327640
Cu    7.163820   10.745730    0.000000
Cu    7.163820   10.745730   14.327640
Cu    0.000000    5.372865    8.954775
Cu   14.327640    5.372865    8.954775
Cu    0.000000   12.536685    8.954775
Cu   14.327640   12.536685    8.954775
Cu    7.163820    1.790955    5.372865
Cu    7.163820    1.790955   12.536685
Cu    3.581910    8.954775    1.790955
Cu   10.745730    8.954775    1.790955
Cu    3.581910    1.790955    8.954775
Cu   10.745730    1.790955    8.954775
Cu    0.000000    8.954775   12.536685
Cu   14.327640    8.954775   12.536685
Cu    0.000000    8.954775    5.372865
Cu   14.327640    8.954775    5.372865
Cu    7.163820    5.372865    1.790955
Cu    7.163820   12.536685    1.790955
Cu    1.790955    3.581910    8.954775
Cu    1.790955   10.745730    8.954775
Cu    8.954775    0.000000    5.372865
Cu    8.954775   14.327640    5.372865
Cu    8.954775    0.000000   12.536685
Cu    8.954775   14.327640   12.536685
Cu    5.372865    7.163820    1.790955
Cu   12.536685    7.163820    1.790955
Cu    5.372865    0.000000    8.954775
Cu    5.372865   14.327640    8.954775
Cu   12.536685    0.000000    8.954775
Cu   12.536685   14.327640    8.954775
Cu    1.790955    7.163820   12.536685
Cu    1.790955    7.163820    5.372865
Cu    8.954775    3.581910    1.790955
Cu    8.954775   10.745730    1.790955
Cu    1.790955    5.372865    7.163820
Cu    1.790955   12.536685    7.163820
Cu    8.954775    1.790955    3.581910
Cu    8.954775    1.790955   10.745730
Cu    5.372865    8.954775    0.000000
Cu    5.372865    8.954775   14.327640
Cu   12.536685    8.954775    0.000000
Cu   12.536685    8.954775   14.327640
Cu    5.372865    1.790955    7.163820
Cu   12.536685    1.790955    7.163820
Cu    1.790955    8.954775   10.745730
Cu    1.790955    8.954775    3.581910
Cu    8.954775    5.372865    0.000000
Cu    8.954775    5.372865   14.327640
Cu    8.954775   12.536685    0.000000
Cu    8.954775   12.536685   14.327640
Cu    0.000000    7.163820    7.163820
Cu   14.327640    7.163820    7.163820
Cu    7.163820    0.000000    7.163820
Cu    7.163820   14.327640    7.163820
Cu    7.163820    7.163820    0.000000
Cu    7.163820    7.163820   14.327640
Cu    0.000000    8.954775    8.954775
Cu   14.327640    8.954775    8.954775
Cu    7.163820    1.790955    8.954775
Cu    7.163820    8.954775    1.790955
Cu    1.790955    7.163820    8.954775
Cu    8.954775    0.000000    8.954775
Cu    8.954775   14.327640    8.954775
Cu    8.954775    7.163820    1.790955
Cu    1.790955    8.954775    7.163820
Cu    8.954775    1.790955    7.163820
Cu    8.954775    8.954775    0.000000
Cu    8.954775    8.954775   14.327640
Cu    3.581910    3.581910    3.581910
Cu   10.745730   10.745730   10.745730
Cu   10.745730   10.745730    3.581910
Cu    3.581910    3.581910   10.745730
Cu   10.745730    3.581910   10.745730
Cu    3.581910   10.745730    3.581910
Cu    3.581910   10.745730   10.745730
Cu   10.745730    3.581910    3.581910
Cu    3.581910    5.372865    5.372865
Cu   10.745730   12.536685   12.536685
Cu   10.745730   12.536685    5.372865
Cu    3.581910    5.372865   12.536685
Cu   10.745730    5.372865   12.536685
Cu    3.581910   12.536685    5.372865
Cu    3.581910   12.536685   12.536685
Cu   10.745730    5.372865    5.372865
Cu    5.372865    3.581910    5.372865
Cu   12.536685   10.745730   12.536685
Cu   12.536685   10.745730    5.372865
Cu    5.372865    3.581910   12.536685
Cu   12.536685    3.581910   12.536685
Cu    5.372865   10.745730    5.372865
Cu    5.372865   10.745730   12.536685
Cu   12.536685    3.581910    5.372865
Cu    5.372865    5.372865    3.581910
Cu   12.536685   12.536685   10.745730
Cu   12.536685   12.536685    3.581910
Cu    5.372865    5.372865   10.745730
Cu   12.536685    5.372865   10.745730
Cu    5.372865   12.536685    3.581910
Cu    5.372865   12.536685   10.745730
Cu   12.536685    5.372865    3.581910
Cu    3.581910    3.581910    7.163820
Cu   10.745730   10.745730    7.163820
Cu   10.745730    3.581910    7.163820
Cu    3.581910   10.745730    7.163820
Cu    7.163820    3.581910    3.581910
Cu    7.163820   10.745730   10.745730
Cu    7.163820   10.745730    3.581910
Cu    7.163820    3.581910   10.745730
Cu    3.581910    7.163820    3.581910
Cu   10.745730    7.163820   10.745730
Cu    3.581910    7.163820   10.745730
Cu   10.745730    7.163820    3.581910
Cu    3.581910    5.372865    8.954775
Cu   10.745730   12.536685    8.954775
Cu   10.745730    5.372865    8.954775
Cu    3.581910   12.536685    8.954775
Cu    7.163820    5.372865    5.372865
Cu    7.163820   12.536685   12.536685
Cu    7.163820   12.536685    5.372865
Cu    7.163820    5.372865   12.536685
Cu    3.581910    8.954775    5.372865
Cu   10.745730    8.954775   12.536685
Cu    3.581910    8.954775   12.536685
Cu   10.745730    8.954775    5.372865
Cu    5.372865    3.581910    8.954775
Cu   12.536685   10.745730    8.954775
Cu   12.536685    3.581910    8.954775
Cu    5.372865   10.745730    8.954775
Cu    8.954775    3.581910    5.372865
Cu    8.954775   10.745730   12.536685
Cu    8.954775   10.745730    5.372865
Cu    8.954775    3.581910   12.536685
Cu    5.372865    7.163820    5.372865
Cu   12.536685    7.163820   12.536685
Cu    5.372865    7.163820   12.536685
Cu   12.536685    7.163820    5.372865
Cu    5.372865    5.372865    7.163820
Cu   12.536685   12.536685    7.163820
Cu   12.536685    5.372865    7.163820
Cu    5.372865   12.536685    7.163820
Cu    8.954775    5.372865    3.581910
Cu    8.954775   12.536685   10.745730
Cu    8.954775   12.536685    3.581910
Cu    8.954775    5.372865   10.745730
Cu    5.372865    8.954775    3.581910
Cu   12.536685    8.954775   10.745730
Cu    5.372865    8.954775   10.745730
Cu   12.536685    8.954775    3.581910
Cu    3.581910    7.163820    7.163820
Cu   10.745730    7.163820    7.163820
Cu    7.163820    3.581910    7.163820
Cu    7.163820   10.745730    7.163820
Cu    7.163820    7.163820    3.581910
Cu    7.163820    7.163820   10.745730
Cu    3.581910    8.954775    8.954775
Cu   10.745730    8.954775    8.954775
Cu    7.163820    5.372865    8.954775
Cu    7.163820   12.536685    8.954775
Cu    7.163820    8.954775    5.372865
Cu    7.163820    8.954775   12.536685
Cu    5.372865    7.163820    8.954775
Cu   12.536685    7.163820    8.954775
Cu    8.954775    3.581910    8.954775
Cu    8.954775   10.745730    8.954775
Cu    8.954775    7.163820    5.372865
Cu    8.954775    7.163820   12.536685
Cu    5.372865    8.954775    7.163820
Cu   12.536685    8.954775    7.163820
Cu    8.954775    5.372865    7.163820
Cu    8.954775   12.536685    7.163820
Cu    8.954775    8.954775    3.581910
Cu    8.954775    8.954775   10.745730
Cu    7.163820    7.163820    7.163820
Cu    7.163820    8.954775    8.954775
Cu    8.954775    7.163820    8.954775
Cu    8.954775    8.954775    7.163820
